48
	Energy:      94.7830613
C          2.39663        4.51143       -1.76919
C          3.03378        5.46710       -2.57393
C          2.11556        3.24133       -2.28211
C          3.40109        5.13316       -3.88930
C          2.48391        2.91579       -3.59170
C          3.13205        3.85976       -4.39187
H          1.60964        2.51051       -1.66570
H          2.10413        4.75813       -0.75591
H          3.90436        5.85535       -4.51973
H          2.26722        1.93258       -3.98685
H          3.42372        3.60744       -5.40312
C          3.31433        6.84275       -2.04458
C          4.47525        6.82995       -1.03613
H          2.38992        7.28154       -1.61727
H          3.60344        7.48435       -2.89994
C          4.89399        8.25808       -0.60632
C          3.86727        8.83824        0.38112
N          5.04137        9.17639       -1.76648
C          6.04629        8.74455       -2.75706
H          5.34246       10.10962       -1.39558
H          5.34935        6.34077       -1.51674
H          4.23081        6.21137       -0.14295
H          5.85509        8.17912       -0.04515
H          2.87881        8.97607       -0.10131
H          4.21344        9.82303        0.76061
H          3.74677        8.16446        1.25857
C          6.15367        9.72433       -3.95721
H          5.83921        7.73438       -3.15780
H          7.03466        8.70553       -2.24385
O          7.08830        9.08185       -4.87806
H          7.99304        9.04043       -4.32637
C          4.94828        9.81080       -4.90619
H          6.42422       10.52585       -3.52064
C          4.53781        8.71022       -5.70104
C          4.27485       11.03801       -5.06210
C          3.23614       11.17555       -5.98812
C          3.48683        8.85814       -6.64167
C          2.84277       10.10232       -6.78238
H          5.04774        7.75895       -5.61028
H          4.56313       11.90074       -4.47775
H          2.73357       12.12803       -6.09809
C          3.02397        7.72921       -7.47126
O          1.83507       10.28325       -7.67082
O          3.37646        7.64278       -8.64035
H          1.50350        9.58415       -8.25321
N          2.07166        6.89907       -6.99270
H          1.72257        7.01707       -6.02965
H          1.64815        6.17950       -7.59613
