49
	Energy:     197.2920102
N          3.34558       -8.04261       -0.46219
C          4.17594       -7.59813        0.65105
H          2.41872       -7.56235       -0.38603
H          3.15506       -9.06382       -0.34306
N          4.37122       -6.14986        0.58229
N          5.42279       -8.35452        0.68291
C          5.59223       -5.55818        0.56266
H          3.52887       -5.55409        0.56255
C          6.69958       -7.74899        0.69264
C          6.81861       -6.36396        0.62791
O          5.67524       -4.33649        0.51289
N          8.04918       -5.78840        0.64362
N          7.82589       -8.51001        0.78444
C          9.05969       -7.93913        0.82364
C          9.18221       -6.54180        0.75310
H          9.94074       -8.56663        0.87411
C         10.53748       -5.87829        0.71243
N         11.20621       -5.80174        2.00784
H         10.40395       -4.83879        0.34247
H         11.16704       -6.43192       -0.01646
C         12.48894       -5.16286        2.14857
H         10.71251       -6.13690        2.85096
C         13.03232       -4.91879        3.42282
C         13.21868       -4.74253        1.02157
C         14.25887       -4.23760        3.56401
C         14.44005       -4.07891        1.15666
C         14.98089       -3.79120        2.42239
H         14.94345       -3.75043        0.25826
H         12.84053       -4.90469        0.02493
H         12.49113       -5.22458        4.31206
H         14.60229       -4.04947        4.56873
C         16.22559       -2.91888        2.49516
O         16.75542       -2.55714        1.45293
N         16.64625       -2.39035        3.68663
C         17.49401       -1.17969        3.81279
H         16.20692       -2.74247        4.54118
C         17.50286       -0.77445        5.27001
O         16.46228       -0.77680        5.91059
O         18.62494       -0.29167        5.83481
C         16.83431       -0.01189        2.97684
H         18.54911       -1.38456        3.49319
C         17.03395        1.52665        3.33087
H         15.75255       -0.23724        3.10433
H         17.16041       -0.17331        1.91777
C         16.85002        3.02007        3.00256
H         16.20238        1.62521        2.57893
H         18.13379        1.55700        3.20483
O         17.43213        3.51467        2.04169
O         16.07240        3.82451        3.76744
