30
Energy =
C    -0.2137741   -0.5446673    2.7871757 
C    -1.6044745   -0.3905387    2.4960674 
C    -2.1076456   -1.6423508    2.0323852 
C    -1.0177648   -2.5817014    2.0440707 
C     0.1504413   -1.9043858    2.5054244 
H     1.1567189   -2.3321844    2.5890106 
H    -3.1361293   -1.8470178    1.7118133 
Cr   -0.5345787   -0.9893736    0.5980788 
H    -1.0716179   -3.6321714    1.7325275 
N    -0.8392650   -1.9708549   -0.7415204 
O    -1.0779639   -2.7151709   -1.6307778 
N     1.2573771   -0.5748333    0.1712262 
N    -1.2585564    0.5818316   -0.1771485 
O    -2.3521203    1.0462318   -0.3755644 
O     2.3535101   -1.0470126    0.3339502 
Cr    0.5349746    1.0014999   -0.5899103 
N     0.8405598    1.9852848    0.7477871 
O     1.0892270    2.7338722    1.6305738 
C    -0.0158155    2.1442707   -2.4151879 
C     1.3015220    2.5104022   -1.9911607 
C     2.1448051    1.3526669   -2.0836673 
H     1.6104555    3.5026868   -1.6389778 
C     0.0165985    0.7585543   -2.7796875 
C     1.3438361    0.2746227   -2.5768495 
H    -0.8990094    2.7940818   -2.4320714 
H    -0.8393447    0.1626762   -3.1199325 
H     3.2044422    1.2953819   -1.8077270 
H     1.6821610   -0.7574994   -2.7304246 
H    -2.1792594    0.5403118    2.5722627 
H     0.4606903    0.2453865    3.1382540 
