12
	Energy:       7.3104441
C         -1.73552        0.53282        1.02346
C         -1.03331       -0.37258        0.00376
C          0.45770       -0.38156        0.24549
H         -1.57162        0.15826        2.05682
H         -2.82737        0.55853        0.82127
H         -1.34620        1.57090        0.95221
N         -1.58118       -1.73092        0.06121
H         -1.20998        0.03530       -1.01557
H         -2.59877       -1.70834       -0.18034
H         -1.47862       -2.12272        1.02644
O          1.13531        0.81049        0.17704
O          1.05043       -1.42312        0.48272
