202
Energy =
C     1.9014459    9.1119245    0.8157824 
C     1.5520964    7.8071487    1.0762314 
C    -4.0456747   11.2960951    3.6470982 
C    -4.3976737    9.9714284    3.9071925 
C     0.9076910    9.5376139    5.1848779 
C    -0.2903833    9.9730581    5.7514996 
C    -2.1942283    9.1333010   -1.0029311 
C    -3.4006649    9.5753681   -0.4515514 
C    -0.0526328   12.8850384    2.3238734 
C    -0.6766887   12.8107214    1.0779739 
C    -1.8072176    6.2993334    3.6468605 
C    -2.4135572    6.2362537    2.3890631 
C     2.2168351   10.0088239    1.9010602 
C     1.1666767    9.8841179   -0.2016382 
C     1.4926142    7.3519707    2.4345342 
C     0.6369947    6.9615661    0.1922603 
C    -2.9527738   11.9104280    4.3738301 
C    -4.0051179   11.7797381    2.2828343 
C    -3.6727535    9.2114521    4.9093368 
C    -4.7201376    9.0807958    2.8151580 
C     1.6275346   10.3951371    4.2630536 
C     1.0295090    8.1739606    4.7116848 
C    -0.8135587   11.2824993    5.4218751 
C    -1.4104725    9.0599558    5.8693100 
C    -1.0745881   10.0437753   -1.1141567 
C    -1.6762801    7.8264105   -0.7158293 
C    -3.5241305   10.9417535    0.0186345 
C    -4.1159180    8.7181286    0.4562015 
C     1.1591047   12.1291027    2.5748474 
C    -0.8450456   12.8667807    3.5330326 
C    -0.1139234   11.9800257    0.0352180 
C    -2.1214560   12.7131406    0.9977221 
C    -0.3748727    6.4037143    3.7301096 
C    -2.3799412    7.1284894    4.6857929 
C    -1.6148636    6.2470010    1.1886882 
C    -3.6269421    6.9836117    2.1343150 
C     2.1932384    9.5603937    3.2250929 
C     0.1305405    9.2995608   -0.8918449 
C     1.8224395    8.1973451    3.4978466 
C    -0.1645174    7.8021602   -0.9076843 
C    -2.2563731   11.1804306    5.3366884 
C    -4.3196298   10.9215743    1.2287674 
C    -2.6244644    9.8061863    5.6122823 
C    -4.6846997    9.5446297    1.4996368 
C     1.1199825   11.6554858    3.9450448 
C    -0.0465804    7.2963293    4.8251023 
C    -0.1200651   12.1071199    4.5353145 
C    -1.2900908    7.7459314    5.4162521 
C    -1.2005999   11.3671060   -0.6813363 
C    -2.3538554    7.0147585    0.1680269 
C    -2.4471204   11.8185232   -0.0939181 
C    -3.5877426    7.4619292    0.7681982 
C     1.6919897   11.3182194    1.5740327 
C    -2.2349593   12.7723245    3.4566992 
C     1.0457641   11.2384542    0.2805267 
C    -2.8849085   12.6926175    2.1650189 
C     0.3784060    6.4364594    2.5525785 
C    -3.5472890    7.8511969    4.4364984 
C    -0.2415446    6.3231313    1.2637682 
C    -4.1877158    7.7711162    3.1377141 
H     0.3685660    7.9169125   -3.0459153 
C     0.2824826    7.1609806   -2.2460709 
H    -0.4698411    6.4154275   -2.5890937 
C     1.5090079    5.9556940   -0.6480974 
H     2.5295187    5.9488092   -0.2267331 
N     1.5655971    6.6011740   -1.9417416 
C     2.2650008    5.9310482   -3.0029610 
H     2.3895838    6.6241376   -3.8530826 
H     1.7515826    5.0159431   -3.3742778 
H     3.2720781    5.6392315   -2.6578707 
C     1.0493817    4.5040908   -0.6495933 
C     0.3592548    1.7703896   -0.7210331 
C    -0.2408555    4.0914790   -1.0153192 
C     1.9775591    3.5096442   -0.3217357 
C     1.6496879    2.1572679   -0.3594521 
C    -0.5891828    2.7447067   -1.0454044 
H    -1.0143897    4.8254957   -1.2513673 
H     2.9949269    3.7991867   -0.0384298 
H     2.4039617    1.4018747   -0.1247713 
H    -1.6130846    2.4517157   -1.2934205 
N     0.0079194    0.3997468   -0.7516581 
C     0.4163121   -0.5808849    0.1311451 
C    -0.1926248   -1.7349507   -0.2818175 
N    -0.9480652   -1.4771550   -1.3925516 
C    -0.8126048   -0.1990597   -1.6527696 
H     1.0591067   -0.3588868    0.9797574 
H    -1.2757058    0.3270024   -2.4879957 
H    -0.1476110   -2.7316806    0.1556497 
C    -0.4990724   -4.4299154   -4.1595596 
C     0.3106265   -5.6290447   -4.1566732 
H     0.9762825   -5.9451197   -4.9581711 
C     0.0585879   -6.2681781   -2.9814165 
N    -1.2235806   -4.3625642   -3.0088612 
C    -0.9164443   -5.4672696   -2.2737679 
H     0.4869721   -7.2041103   -2.6265970 
C    -0.5496356   -3.5128699   -5.2282223 
C    -1.3822186   -2.3777263   -5.2880999 
N    -2.2328838   -1.9548618   -4.3112780 
C    -2.8535732   -0.8336595   -4.7743769 
C    -2.3812697   -0.5314057   -6.1082618 
C    -1.4591152   -1.4828913   -6.4217815 
H    -2.7226590    0.2942552   -6.7303282 
H    -0.8875684   -1.5776121   -7.3435467 
C    -3.8210632   -0.0779879   -4.0799188 
C    -4.3384133   -0.3970456   -2.8060563 
N    -4.0185873   -1.4929695   -2.0635515 
C    -4.7245215   -1.4122941   -0.9011589 
C    -5.5182450   -0.2027611   -0.8955810 
C    -5.2783084    0.4283722   -2.0782450 
H    -6.1639672    0.1287433   -0.0841574 
H    -5.6927079    1.3744020   -2.4229648 
C    -4.6924603   -2.3440616    0.1569554 
C    -3.8870805   -3.5005517    0.1989292 
C    -3.9653483   -4.5108868    1.2316776 
C    -3.0637998   -5.4774061    0.9032252 
C    -2.4359157   -5.0572413   -0.3299720 
N    -2.9581396   -3.8639279   -0.7280019 
H    -4.6460228   -4.4958822    2.0813256 
H    -2.8592781   -6.4072359    1.4317839 
C    -1.4622200   -5.8070304   -1.0198420 
Zn   -2.3751392   -2.7506673   -2.3874223 
C    -5.5931803   -2.0964230    1.3187706 
C    -7.2901121   -1.6274292    3.5156953 
C    -6.9874217   -2.1403212    1.1721777 
C    -5.0656301   -1.8155488    2.5875513 
C    -5.9051644   -1.5813255    3.6757477 
C    -7.8282804   -1.9092056    2.2599190 
H    -7.4121338   -2.3690373    0.1900949 
H    -3.9795217   -1.7727783    2.7136930 
H    -5.4731635   -1.3568686    4.6560645 
H    -8.9135332   -1.9545165    2.1254241 
H    -7.9498935   -1.4446709    4.3695020 
C    -0.9891470   -7.0704706   -0.3829909 
C    -0.0623577   -9.4559690    0.8104565 
C    -1.3569700   -8.3270011   -0.8915931 
C    -0.1574490   -7.0435720    0.7396118 
C     0.3102192   -8.2159629    1.3371020 
C    -0.9060181   -9.5026114   -0.3066203 
H    -2.0142538   -8.3775120   -1.7647607 
H     0.1442072   -6.0781476    1.1572434 
H     0.9643431   -8.1455102    2.2087172 
H    -1.1944500  -10.4800011   -0.7021920 
C     0.3322093   -3.7836592   -6.4017771 
C     2.0006686   -4.3034234   -8.6078347 
C     1.7210179   -3.6189350   -6.3058491 
C    -0.2057982   -4.2150428   -7.6223915 
C     0.6202501   -4.4725882   -8.7159190 
C     2.5485627   -3.8757687   -7.3984856 
H     2.1525730   -3.2801790   -5.3590944 
H    -1.2875136   -4.3564028   -7.7073105 
H     0.1811380   -4.8132383   -9.6588469 
H     3.6303193   -3.7378117   -7.3043643 
H     2.6493742   -4.5060417   -9.4656113 
C    -4.3440186    1.1487250   -4.7466429 
C    -5.3357535    3.4638182   -6.0090890 
C    -3.5073579    2.2455460   -5.0011618 
C    -5.6879776    1.2352049   -5.1387134 
C    -6.1792845    2.3802085   -5.7639390 
C    -3.9967875    3.3923284   -5.6250864 
H    -2.4559152    2.1946009   -4.7006145 
H    -6.3503583    0.3837682   -4.9562955 
H    -7.2299207    2.4232566   -6.0674509 
H    -3.3267250    4.2376052   -5.8111784 
H    -5.7212705    4.3623667   -6.5005692 
O     0.3427006  -10.6487090    1.3095759 
C     1.2822791  -10.6704072    2.3460293 
H     2.2056394  -10.1331056    2.0520062 
H     0.8899139  -10.1891463    3.2628906 
C     1.5887208  -12.1330857    2.6310554 
H     1.8382693  -12.6597331    1.6930153 
H     0.7024221  -12.6244627    3.0605328 
O     2.6073289  -12.2630413    3.5924036 
C     3.9021369  -12.1321624    3.2417245 
C     6.6700723  -11.8997270    2.7293355 
C     4.3652683  -11.9435160    1.9329283 
C     4.8316352  -12.2039792    4.2907876 
C     6.1895344  -12.0967455    4.0372362 
C     5.7313900  -11.8238158    1.6912273 
H     3.6759299  -11.8925371    1.0878009 
H     4.4547286  -12.3383093    5.3077817 
H     6.8961542  -12.1308397    4.8708454 
H     6.0787919  -11.6948924    0.6625273 
C     8.1100099  -11.7688776    2.4498609 
B    11.0458907  -11.5742865    1.7170003 
C     8.5806738  -10.6759684    1.6974890 
C     9.0250599  -12.7176873    2.9421222 
N    10.3816030  -12.5951223    2.6967386 
N     9.9218345  -10.5424653    1.3879028 
F    12.1052712  -10.9410423    2.3264091 
F    11.4398711  -12.2275047    0.5685938 
C    10.0913367   -9.3835854    0.7489755 
H    11.0843670   -9.0754002    0.4198298 
C     8.8597606   -8.7135808    0.6172665 
H     8.7057770   -7.7429900    0.1470827 
C     7.9055691   -9.5218752    1.2210412 
H     6.8439196   -9.3134146    1.3442041 
C     8.8246490  -13.8954920    3.7087270 
H     7.8620547  -14.2805074    4.0415710 
C    11.0065258  -13.6183650    3.2814724 
H    12.0892282  -13.7221200    3.2006769 
C    10.0767109  -14.4530628    3.9311251 
H    10.3094475  -15.3604741    4.4871955 
