51
	Energy:      37.1832250
C         -4.02134       -2.65326        0.76380
C         -2.70787       -1.91188        0.46434
C         -1.53279       -2.88536        0.27312
H         -2.46326       -1.23114        1.29761
H         -2.82713       -1.29799       -0.45656
C         -0.21664       -2.10979        0.10963
C          1.00692       -3.03627        0.02968
C          2.29887       -2.20457       -0.01163
C          3.55964       -3.08354       -0.01947
C          4.83681       -2.27337       -0.02104
H          3.55228       -3.73490       -0.91984
H          3.56174       -3.72774        0.88681
O          4.80490       -1.04941       -0.02377
O          6.03391       -2.89308       -0.01325
H          2.29218       -1.56022       -0.91833
H          2.33203       -1.55432        0.89100
H          0.93774       -3.68208       -0.87338
H          1.02874       -3.68558        0.93246
H         -0.26520       -1.47193       -0.80066
H         -0.09321       -1.45216        0.99812
H         -1.71170       -3.53141       -0.61556
H         -1.45508       -3.53127        1.17418
C         -5.19426       -1.70944        0.88407
H         -3.94308       -3.28519        1.67351
H         -4.22116       -3.31994       -0.10486
C         -5.44479       -0.82753        1.87482
H         -5.92199       -1.75093        0.07748
C         -4.66813       -0.63511        3.16304
H         -6.35243       -0.23945        1.76006
C         -5.01006        0.72075        3.75386
H         -5.02195       -1.42192        3.86277
H         -3.58799       -0.78149        3.04072
C         -4.15841        1.63218        4.27567
H         -6.06450        0.98546        3.77365
C         -2.67135        1.47092        4.48748
H         -4.59429        2.55648        4.64659
C         -1.81792        2.56976        3.83091
H         -2.29804        0.48453        4.15832
H         -2.52124        1.53160        5.58705
C         -0.35594        2.39307        4.28382
H         -2.17623        3.57509        4.14710
H         -1.89526        2.49443        2.72409
C          0.61044        3.41430        3.67398
H         -0.01308        1.37336        4.00344
H         -0.31541        2.49078        5.39208
C          2.03117        3.16669        4.18879
H          0.30256        4.44641        3.94943
H          0.60681        3.32092        2.56668
H          2.06748        3.27523        5.29469
H          2.73552        3.89759        3.73986
H          2.36744        2.14172        3.92019
