296
Energy =
C     0.3910196    0.7828906   -0.1099172 
C     1.6787356    1.0305736    0.1952178 
C     2.0264096    2.4285436    0.2968728 
C     0.9872496    3.2600056    0.0394618 
S    -0.5152494    2.3258586   -0.3142632 
C    -0.2766174   -0.4903834   -0.2645572 
C    -1.5263334   -0.7423614   -0.6974102 
C    -1.8811294   -2.1405504   -0.7660662 
C    -0.8884314   -2.9666894   -0.3536892 
S     0.5762096   -2.0281114    0.1244218 
C    -5.6728014   -2.8625574   -1.7721182 
C    -4.8590724   -3.6223074   -2.5335462 
C    -3.4601344   -3.4630204   -2.2513082 
C    -3.1850764   -2.5759474   -1.2774502 
S    -4.7082474   -1.8647874   -0.6182472 
C    -0.8873194   -4.4133414   -0.2118552 
C    -1.7636134   -5.1866714    0.4580428 
C    -1.4832134   -6.5922324    0.3963898 
C    -0.3739814   -6.9091004   -0.3033822 
S     0.4036336   -5.4255814   -0.9692982 
C     0.9598716    4.7120076   -0.0286142 
C     1.7369146    5.5260246   -0.7689462 
C     1.4622226    6.9238506   -0.6000612 
C     0.4550126    7.1942876    0.2561028 
S    -0.2223504    5.6719796    0.9434228 
C     5.9011616    3.1616926    0.8942488 
C     5.1738296    3.8652716    1.7857038 
C     3.7532346    3.6963736    1.6598438 
C     3.3763816    2.8577606    0.6772978 
S     4.8198716    2.2091386   -0.1921662 
C     9.7993346    2.5164676    0.4359948 
C     9.5969886    3.8220446    0.7460468 
C     8.2027006    4.1614386    0.9046088 
C     7.3431506    3.1369416    0.7481898 
S     8.2348016    1.6249596    0.3544168 
C    12.5429566    6.3293936    1.7428108 
C    11.8537626    6.8357326    0.7001348 
C    10.7832346    5.9969366    0.2370718 
C    10.6385706    4.8453376    0.9207598 
S    11.8676346    4.7307326    2.2340678 
C    12.9556436    0.1539816   -0.0519732 
C    13.1538736    1.3101556   -0.7191392 
C    12.0769216    2.2493876   -0.6097142 
C    11.0396866    1.8236736    0.1401138 
S    11.3601346    0.1677476    0.7836088 
C    -1.0340674   10.5601276    1.7604278 
C    -0.7944554   10.7326906    0.4364858 
C    -0.2472474    9.5579056   -0.2019402 
C    -0.0773904    8.4963006    0.6076968 
S    -0.5979494    8.8908576    2.2839368 
C    -0.9984284   13.9624916   -1.8995782 
C    -2.1707984   13.8074436   -1.2503232 
C    -2.2214184   12.6754696   -0.3689372 
C    -1.0889244   11.9510696   -0.3236542 
S     0.1592066   12.6597656   -1.4231002 
C    -2.7896084   12.7535466    4.5754058 
C    -1.7224604   13.4196076    4.0865468 
C    -1.0110714   12.7233876    3.0537318 
C    -1.5205544   11.5159446    2.7424338 
S    -2.9768944   11.1613516    3.7507348 
C    -9.5872574   -2.1439654   -1.8117752 
C    -9.3728744   -3.4644224   -2.0339222 
C    -7.9766144   -3.8299794   -2.0123582 
C    -7.1209564   -2.8123424   -1.7987352 
S    -8.0261534   -1.2729354   -1.5725812 
C   -12.2207614   -5.9559174   -3.3124402 
C   -11.7893934   -6.3539444   -2.0977862 
C   -10.7670994   -5.5206304   -1.5295002 
C   -10.4110494   -4.4728934   -2.2943702 
S   -11.3395314   -4.4722334   -3.8403582 
C   -13.1440914   -0.4725644   -1.2046282 
C   -12.3581854    0.3748836   -1.9013512 
C   -11.0483994   -0.1326894   -2.1825752 
C   -10.8194244   -1.3814264   -1.7229322 
S   -12.2719724   -2.0093434   -0.8555372 
C     1.2907686  -10.3455764   -1.4189192 
C     0.8533016  -10.4579394   -0.1400652 
C     0.2303126   -9.2520164    0.3565708 
C     0.1891626   -8.2280764   -0.5157512 
S     0.9439566   -8.7031534   -2.0777212 
C     0.7039656  -13.5327384    2.3970178 
C     1.9174776  -13.4992694    1.8082188 
C     2.0943286  -12.4337264    0.8641348 
C     1.0194146  -11.6388864    0.7086828 
S    -0.3313014  -12.1899854    1.7758558 
C     2.5203646  -13.2732774   -3.7824792 
C     3.4559816  -12.3045984   -3.8003602 
C     3.1059796  -11.1879754   -2.9477922 
C     1.9343256  -11.3133974   -2.2959782 
S     1.1430346  -12.8787814   -2.7244252 
C    15.4345516    7.7601056    4.0684938 
C    15.7058626    8.0754156    2.7780068 
C    14.7057196    7.5953996    1.8519518 
C    13.6879546    6.9163076    2.4122528 
S    13.8999776    6.8212836    4.1961698 
C    16.9007716    8.7878386    2.3131548 
C    18.1950056    8.5564896    2.5996908 
C    19.1192326    9.4440106    1.9396328 
C    18.5268776   10.3476066    1.1443518 
S    16.7477226   10.1723016    1.1567478 
C    17.4343516    8.1054716    7.4706208 
C    17.2192836    9.3335306    6.9731618 
C    16.4921206    9.3338906    5.7302398 
C    16.1625316    8.1084346    5.2793228 
S    16.7512866    6.8328976    6.4206058 
C    14.9622936   -3.2760134    0.1161848 
C    15.8418816   -2.2443324    0.1439448 
C    15.2006216   -0.9494374    0.1208918 
C    13.8572746   -0.9770324    0.0435888 
S    13.2638106   -2.6754164    0.0238278 
C    17.3005916   -2.3778504    0.1664518 
C    18.0880766   -3.2018754   -0.5505552 
C    19.4972776   -3.0531034   -0.2920022 
C    19.7821606   -2.1083244    0.6171248 
S    18.3037836   -1.3227394    1.2403748 
C    15.1782576   -4.7149434    0.1766668 
C    14.7499276   -5.6534194   -0.6919062 
C    15.0723166   -7.0053334   -0.3152422 
C    15.7396216   -7.0926434    0.8461498 
S    16.0207206   -5.4885244    1.5773468 
C   -14.9862714   -8.0776624   -5.2159052 
C   -14.8432144   -6.8859154   -5.8448512 
C   -13.8413354   -6.0370694   -5.2421932 
C   -13.2348344   -6.5500564   -4.1555372 
S   -13.8727594   -8.1971904   -3.7999752 
C   -15.6295334   -6.4409324   -7.0008482 
C   -16.9653874   -6.4184084   -7.1597122 
C   -17.4054834   -5.8878604   -8.4255042 
C   -16.4016814   -5.5008954   -9.2271482 
S   -14.8065154   -5.7736414   -8.4678672 
C   -17.5011564  -11.1186244   -5.5652932 
C   -16.8498154  -10.9645544   -6.7287652 
C   -15.8987394   -9.8833604   -6.7200892 
C   -15.8331564   -9.2102604   -5.5553702 
S   -16.9883224   -9.9133304   -4.3513392 
C   -16.9673334   -0.4085124   -0.1040882 
C   -16.4281844    0.8204366    0.0853978 
C   -15.0339314    0.8959016   -0.2820052 
C   -14.5030204   -0.2483834   -0.7536142 
S   -15.7453284   -1.5499104   -0.7790652 
C   -17.1240854    1.9887026    0.6455148 
C   -17.3828954    3.1658556    0.0460848 
C   -18.0372324    4.1331056    0.8909168 
C   -18.2659994    3.6888216    2.1363398 
S   -17.6797914    2.0174086    2.3625918 
C   -18.3149624   -0.9008884    0.1273638 
C   -18.6793014   -2.0721874    0.6900978 
C   -20.0993154   -2.2980314    0.7266838 
C   -20.8148294   -1.3002184    0.1838768 
S   -19.7725584    0.0147406   -0.4231442 
C    -0.5202224   16.9949966   -4.4214512 
C     0.5927796   16.2227606   -4.4538122 
C     0.5300766   15.0927376   -3.5553302 
C    -0.6125954   14.9787646   -2.8525742 
S    -1.7319934   16.3310726   -3.2581372 
C     4.0834706   16.6556996   -6.2955752 
C     3.1049586   16.8958586   -7.1816072 
C     1.7804006   16.7725366   -6.6291692 
C     1.7505306   16.4468796   -5.3230492 
S     3.4311056   16.2596416   -4.6803712 
C    -0.9766044   20.6007916   -5.9991792 
C    -1.9965304   19.8254516   -6.3997042 
C    -1.9254074   18.4780466   -5.8969292 
C    -0.8497774   18.2273036   -5.1229422 
S     0.1642516   19.7146536   -4.9502812 
C    -0.1298434  -16.3701154    5.0513528 
C    -1.2027504  -15.5520154    4.9361508 
C    -1.0035664  -14.4737984    3.9967848 
C     0.1977456  -14.4550284    3.3877078 
S     1.2108256  -15.8267014    3.9713018 
C    -4.7450294  -16.4470814    6.5041768 
C    -4.3554534  -15.2537844    6.9786388 
C    -3.0690924  -14.8306684    6.4855538 
C    -2.4807134  -15.7040764    5.6467338 
S    -3.5339054  -17.1476604    5.3947448 
C     0.3514166  -19.1819624    7.7964898 
C     0.7436656  -19.6697314    6.6087598 
C     0.5992266  -18.7322744    5.5271848 
C     0.0907256  -17.5364404    5.8901838 
S    -0.2336244  -17.5013974    7.6675208 
C     6.6630356  -13.1919264   -5.5638472 
C     5.6039686  -13.4508214   -4.7574652 
C     4.6940606  -12.3142004   -4.6093822 
C     5.0924106  -11.2360664   -5.3093382 
S     6.6024266  -11.5094194   -6.2016232 
C     5.3840786  -14.7448314   -4.0897802 
C     5.4752236  -15.0371754   -2.7801332 
C     5.1557786  -16.4037954   -2.4480682 
C     4.8165886  -17.1485134   -3.5111542 
S     4.8676126  -16.2023214   -5.0261752 
C     7.7817846  -14.0512814   -5.9166352 
C     8.5304096  -14.8322724   -5.1126352 
C     9.5689406  -15.5605824   -5.7927562 
C     9.6145036  -15.3263614   -7.1136392 
S     8.3518756  -14.1761794   -7.6293352 
C    -5.3204534   13.4181776    7.5706738 
C    -5.0815674   14.5855656    6.9221218 
C    -4.1717754   14.4442746    5.8099608 
C    -3.7128324   13.1955426    5.6014008 
S    -4.4026484   12.0626126    6.8163658 
C    -5.6753344   15.8927076    7.2416388 
C    -5.0339484   17.0263416    7.5852928 
C    -5.8955714   18.1675586    7.7690878 
C    -7.1927614   17.8984086    7.5559228 
S    -7.4507564   16.1898116    7.1031218 
C    -6.1386004   13.1682806    8.7437868 
C    -6.2114364   13.8909276    9.8799378 
C    -7.1289334   13.3677496   10.8569398 
C    -7.7464624   12.2414136   10.4666798 
S    -7.2418534   11.7375576    8.8312018 
H     2.3974176    0.2564826    0.3703318 
H    -2.2061824    0.0274016   -1.0000702 
H    -2.6953614   -3.9899614   -2.7836372 
H    -5.2274804   -4.2652584   -3.3064782 
H    -2.6007924   -4.7805074    0.9869338 
H    -2.1080214   -7.3318104    0.8534748 
H     2.4983396    5.1546656   -1.4231302 
H     2.0178506    7.6916576   -1.0981492 
H     3.0500286    4.1800786    2.3059648 
H     5.6230196    4.4718696    2.5451638 
H     7.8841796    5.1577036    1.1319638 
H    10.1469726    6.2648276   -0.5823702 
H    12.0748796    7.7917326    0.2713868 
H    12.0830326    3.2019236   -1.0965912 
H    14.0299856    1.4942236   -1.3062032 
H    -0.0402244    9.5234056   -1.2515462 
H    -3.0912244   12.4214056    0.2007188 
H    -3.0027724   14.4677636   -1.3870892 
H    -0.1375134   13.1184036    2.5776738 
H    -1.4157024   14.3735786    4.4633798 
H    -7.6546404   -4.8407804   -2.1549702 
H   -10.3343984   -5.7059874   -0.5672792 
H   -12.1855584   -7.2101254   -1.5911022 
H   -10.3152404    0.4227956   -2.7309912 
H   -12.6978924    1.3319626   -2.2398192 
H    -0.1257364   -9.1666654    1.3623248 
H     3.0087046  -12.2760394    0.3313778 
H     2.6914286  -14.2044494    2.0327308 
H     3.7406156  -10.3333024   -2.8283672 
H     2.5216586  -14.1974244   -4.3140352 
H     4.5926536  -10.2973984   -5.3935892 
H    14.7964256    7.7325776    0.7942818 
H    18.5069116    7.7727306    3.2586278 
H    20.1802866    9.3808986    2.0681738 
H    16.2281366   10.2282696    5.2046968 
H    17.5480596   10.2301286    7.4569648 
H    15.7572416   -0.0361734    0.1634398 
H    17.6949296   -3.9039494   -1.2560532 
H    20.2455336   -3.6396134   -0.7842992 
H    14.2166816   -5.4060444   -1.5873132 
H    14.8059696   -7.8560484   -0.9080032 
H   -13.6296114   -5.0581054   -5.6201432 
H   -17.6402984   -6.7603354   -6.4024362 
H   -18.4382864   -5.8038714   -8.6949432 
H   -15.2881594   -9.6318324   -7.5624572 
H   -17.0130964  -11.5906724   -7.5816422 
H   -14.4599374    1.7885416   -0.1426552 
H   -17.1342044    3.3575486   -0.9782212 
H   -18.3168404    5.1099486    0.5534248 
H   -17.9661624   -2.7676234    1.0833888 
H   -20.5399024   -3.1762344    1.1515428 
H     1.3313186   14.3866606   -3.4815632 
H     0.8912516   16.9207546   -7.2059182 
H     3.2885116   17.1502736   -8.2051892 
H    -2.6598154   17.7304666   -6.1185102 
H    -2.7861914   20.1712046   -7.0344362 
H    -1.7749474  -13.7601654    3.7928588 
H    -2.6091104  -13.9059744    6.7705068 
H    -4.9399974  -14.6719994    7.6613238 
H     0.8604866  -18.9621164    4.5143168 
H     1.1216386  -20.6622654    6.4749608 
H     5.7566626  -14.3086664   -2.0469012 
H     5.1869066  -16.7852204   -1.4481172 
H     8.3652386  -14.8981134   -4.0580782 
H    10.2432506  -16.2217884   -5.2887102 
H    -3.9229294   15.2687726    5.1743298 
H    -3.9714634   17.0693346    7.7176028 
H    -5.5328854   19.1347646    8.0508628 
H    -5.6290954   14.7744626   10.0376848 
H    -7.2960244   13.8313976   11.8071978 
H    18.9799056   11.1065176    0.5474858 
H    17.9346596    7.8342436    8.3727208 
H    20.7368586   -1.8035954    0.9819468 
H    16.0965726   -7.9682174    1.3399538 
H   -16.4571574   -5.0748644  -10.2033072 
H   -18.2410844  -11.8435144   -5.3109702 
H   -18.7345454    4.2004406    2.9465218 
H   -21.8744774   -1.2179304    0.0940298 
H     5.1386776   16.6789256   -6.4484992 
H    -0.7919754   21.6247866   -6.2341702 
H    -5.6436104  -16.9821574    6.7136868 
H     0.3476386  -19.6711094    8.7443578 
H     4.5432386  -18.1791764   -3.5384462 
H    10.2851766  -15.7334024   -7.8361632 
H    -8.0271914   18.5589216    7.6280508 
H    -8.4607374   11.6576206   11.0019358 
