9
	Energy:       1.2804770
C         -2.23336        1.98122        0.00247
C         -3.51224        2.76050        0.00122
C         -0.94024        2.68814        0.00147
O         -2.26463        0.75966        0.00431
O          0.10928        2.06449        0.00247
H         -0.91533        3.77313       -0.00017
H         -4.38878        2.07778        0.00221
H         -3.55869        3.40038       -0.90480
H         -3.55878        3.40311        0.90530
