42
	Energy:     281.2975347
C         -5.58391       -5.52903       -0.28191
N         -4.27079       -5.89208       -0.82615
H         -4.17611       -5.53621       -1.80746
H         -4.16748       -6.93361       -0.84282
C         -6.62205       -6.22194       -1.14931
N         -7.30110       -7.32180       -0.69966
C         -7.91388       -8.21113       -1.67373
H         -7.18848       -7.63852        0.27665
O         -6.71572       -5.89063       -2.32568
C         -6.81099       -9.04779       -2.19765
C         -8.41608       -9.68727       -1.20077
N         -7.20892      -10.21058       -1.74646
H         -8.59241       -7.72404       -2.40657
O         -5.95765       -8.81357       -3.03842
C         -7.15657      -11.45557       -2.48546
C         -8.63687      -11.96700       -2.47870
S         -9.69746      -10.46496       -2.26868
H         -8.50462       -9.83965       -0.10239
C         -8.97474      -12.72291       -3.78199
H         -8.31549      -13.61206       -3.89365
H         -8.83708      -12.07238       -4.67206
H        -10.03077      -13.06441       -3.78285
C         -8.94901      -12.89394       -1.28561
H         -8.74612      -12.39104       -0.31817
H         -8.34485      -13.82494       -1.33634
H        -10.02138      -13.18982       -1.30530
O         -6.71536      -11.21208       -3.80709
O         -6.28966      -12.36231       -1.84285
H         -5.72246      -11.17649       -3.79215
H         -6.16082      -13.13164       -2.45723
C         -5.64737       -4.00489       -0.20672
C         -6.67599       -3.23930       -0.79701
C         -4.59638       -3.33094        0.44969
C         -4.55801       -1.93592        0.49430
H         -3.78968       -3.89225        0.90565
C         -5.57404       -1.19002       -0.10121
C         -6.63452       -1.83901       -0.73889
H         -7.50432       -3.71091       -1.30504
H         -7.42119       -1.25412       -1.19758
H         -3.73270       -1.43378        0.98386
H         -5.53754       -0.10819       -0.06994
H         -5.63644       -5.92742        0.75528
