39
	Energy:     230.7751274
N         -4.16094        0.28546        0.01131
C         -2.70088        0.41414        0.09574
H         -4.56433        1.05773       -0.57285
H         -4.57731        0.39338        0.96725
N         -2.07830        1.72503        0.13126
N         -1.83147       -0.75662       -0.02557
C         -0.72663        1.84632        0.16837
H         -2.69165        2.56063        0.14796
C         -0.53991       -0.67129        0.02143
C          0.15904        0.63014        0.17415
O         -0.22080        2.96289        0.22021
N          0.28281       -1.82807       -0.11276
N          1.45774        0.67609        0.32890
C          2.34065       -0.51954        0.46076
C          1.57419       -1.79584        0.01798
H          2.09015       -2.74736       -0.03767
C          3.90417       -0.33392       -0.02594
H          2.44089       -0.68989        1.54745
N          4.99794       -0.42440        1.05560
H          4.00149        0.61015       -0.59224
H          4.08994       -1.12892       -0.79069
C          6.39345        0.27025        1.03984
H          5.05298       -1.41181        1.41142
C          7.17071        0.29905       -0.32007
C          8.72818        0.57557       -0.34117
H          6.69598        1.10407       -0.92279
H          7.02695       -0.63554       -0.89298
C          7.34748       -0.15424        2.24447
H          6.22657        1.33976        1.25112
C          8.88881        0.19867        2.22677
H          7.29187       -1.23693        2.48641
H          6.95238        0.33496        3.16145
C          9.51402        0.78787        0.95936
H          8.99814        1.41413       -1.02993
H          9.19989       -0.29730       -0.83730
H          9.48229       -0.69643        2.53272
H          9.15716        0.90233        3.05175
H          9.71095        1.87084        1.11945
H         10.56339        0.39761        0.83287
