7
	Energy:       0.9701909
C         -0.36461       -0.11795       -0.00888
C         -1.70914        0.55743       -0.10448
H          0.41123        0.65679        0.16224
H         -0.09746       -0.68496       -0.92828
H         -0.33164       -0.84327        0.83115
O         -1.80669        1.89722       -0.01795
O         -2.72750       -0.10792       -0.25005
