132
Energy =
H    -4.5028460    0.5449432    3.8298016 
C    -3.4243902    0.4120284    3.7271926 
H    -3.4069610    0.4171478    1.5599955 
C    -2.8258130    0.3430172    2.4800161 
N    -1.3112835    0.1442255    4.8310827 
C    -1.4350011    0.1744451    2.4073441 
C    -2.6362111    0.3085490    4.8773113 
C    -0.7162883    0.0843339    3.6118680 
C    -0.7079389    0.0871256    1.1440943 
H    -3.0867596    0.3560467    5.8708451 
C     0.7079389   -0.0871256    1.1440943 
C     1.4350011   -0.1744451    2.4073441 
C     2.8258130   -0.3430172    2.4800161 
C     0.7162883   -0.0843339    3.6118680 
C     3.4243902   -0.4120284    3.7271926 
H     3.4069610   -0.4171478    1.5599955 
H     4.5028460   -0.5449432    3.8298016 
C     2.6362111   -0.3085490    4.8773113 
H     3.0867596   -0.3560467    5.8708451 
N     1.3112835   -0.1442255    4.8310827 
N    -1.3787713    0.1695813    0.0000000 
C    -0.7079389    0.0871256   -1.1440943 
C     0.7079389   -0.0871256   -1.1440943 
N     1.3787713   -0.1695813    0.0000000 
C    -1.4350011    0.1744451   -2.4073441 
C    -2.6362111    0.3085490   -4.8773113 
C    -2.8258130    0.3430172   -2.4800161 
C    -0.7162883    0.0843339   -3.6118680 
N    -1.3112835    0.1442255   -4.8310827 
C    -3.4243902    0.4120284   -3.7271926 
H    -3.4069610    0.4171478   -1.5599955 
H    -4.5028460    0.5449432   -3.8298016 
H    -3.0867596    0.3560467   -5.8708451 
C     0.7162883   -0.0843339   -3.6118680 
C     3.4243902   -0.4120284   -3.7271926 
N     1.3112835   -0.1442255   -4.8310827 
C     1.4350011   -0.1744451   -2.4073441 
C     2.8258130   -0.3430172   -2.4800161 
C     2.6362111   -0.3085490   -4.8773113 
H     3.4069610   -0.4171478   -1.5599955 
H     3.0867596   -0.3560467   -5.8708451 
H     4.5028460   -0.5449432   -3.8298016 
Ru    0.0000000    0.0000000   -6.4289766 
Ru    0.0000000    0.0000000    6.4289766 
N     0.0373104    2.0723772   -6.5761974 
C    -0.1214663    4.8277091   -7.0789621 
C     0.7712684    2.9397744   -5.8838355 
C    -0.7999034    2.5587131   -7.5341708 
C    -0.9163932    3.9354979   -7.8294240 
C     0.7200147    4.3238560   -6.1064888 
H     1.4376960    2.5235465   -5.1251186 
H     1.3520097    4.9845258   -5.5105694 
H    -0.1741829    5.9017340   -7.2738491 
C    -1.5713619    1.6037354   -8.2636731 
C    -3.0081683   -0.2838225   -9.6182054 
C    -2.4509329    2.0338288   -9.2813077 
N    -1.4091883    0.2945409   -7.9255806 
C    -2.1112605   -0.6184936   -8.5921532 
C    -3.1823025    1.0407763   -9.9677539 
H    -1.9611315   -1.6610959   -8.3049806 
H    -3.8737286    1.3239314  -10.7652962 
H    -3.5548701   -1.0786521  -10.1286416 
C    -1.8168721    4.3487141   -8.8659073 
H    -1.9016003    5.4140627   -9.0918073 
C    -2.5523195    3.4363413   -9.5627257 
H    -3.2326076    3.7630622  -10.3525301 
N     1.4091883   -0.2945409   -7.9255806 
C     3.1823025   -1.0407763   -9.9677539 
C     2.1112605    0.6184936   -8.5921532 
C     1.5713619   -1.6037354   -8.2636731 
C     2.4509329   -2.0338288   -9.2813077 
C     3.0081683    0.2838225   -9.6182054 
H     1.9611315    1.6610959   -8.3049806 
H     3.5548701    1.0786521  -10.1286416 
H     3.8737286   -1.3239314  -10.7652962 
C     0.7999034   -2.5587131   -7.5341708 
C    -0.7200147   -4.3238560   -6.1064888 
C     0.9163932   -3.9354979   -7.8294240 
N    -0.0373104   -2.0723772   -6.5761974 
C    -0.7712684   -2.9397744   -5.8838355 
C     0.1214663   -4.8277091   -7.0789621 
H    -1.4376960   -2.5235465   -5.1251186 
H     0.1741829   -5.9017340   -7.2738491 
H    -1.3520097   -4.9845258   -5.5105694 
C     1.8168721   -4.3487141   -8.8659073 
H     1.9016003   -5.4140627   -9.0918073 
C     2.5523195   -3.4363413   -9.5627257 
H     3.2326076   -3.7630622  -10.3525301 
N     0.0373104    2.0723772    6.5761974 
C    -0.1214663    4.8277091    7.0789621 
C    -0.7999034    2.5587131    7.5341708 
C     0.7712684    2.9397744    5.8838355 
C     0.7200147    4.3238560    6.1064888 
C    -0.9163932    3.9354979    7.8294240 
H     1.4376960    2.5235465    5.1251186 
H     1.3520097    4.9845258    5.5105694 
H    -0.1741829    5.9017340    7.2738491 
C    -1.5713619    1.6037354    8.2636731 
C    -3.0081683   -0.2838225    9.6182054 
N    -1.4091883    0.2945409    7.9255806 
C    -2.4509329    2.0338288    9.2813077 
C    -3.1823025    1.0407763    9.9677539 
C    -2.1112605   -0.6184936    8.5921532 
H    -3.8737286    1.3239314   10.7652962 
H    -1.9611315   -1.6610959    8.3049806 
H    -3.5548701   -1.0786521   10.1286416 
C    -2.5523195    3.4363413    9.5627257 
H    -3.2326076    3.7630622   10.3525301 
C    -1.8168721    4.3487141    8.8659073 
H    -1.9016003    5.4140627    9.0918073 
N     1.4091883   -0.2945409    7.9255806 
C     3.1823025   -1.0407763    9.9677539 
C     1.5713619   -1.6037354    8.2636731 
C     2.1112605    0.6184936    8.5921532 
C     3.0081683    0.2838225    9.6182054 
C     2.4509329   -2.0338288    9.2813077 
H     1.9611315    1.6610959    8.3049806 
H     3.5548701    1.0786521   10.1286416 
H     3.8737286   -1.3239314   10.7652962 
C     0.7999034   -2.5587131    7.5341708 
C    -0.7200147   -4.3238560    6.1064888 
N    -0.0373104   -2.0723772    6.5761974 
C     0.9163932   -3.9354979    7.8294240 
C     0.1214663   -4.8277091    7.0789621 
C    -0.7712684   -2.9397744    5.8838355 
H     0.1741829   -5.9017340    7.2738491 
H    -1.4376960   -2.5235465    5.1251186 
H    -1.3520097   -4.9845258    5.5105694 
C     1.8168721   -4.3487141    8.8659073 
H     1.9016003   -5.4140627    9.0918073 
C     2.5523195   -3.4363413    9.5627257 
H     3.2326076   -3.7630622   10.3525301 
