40
	Energy:      85.9398020
C         -2.11075        1.04902        0.46832
C         -0.82958        1.59100        1.11355
C         -0.86436       -0.55091       -0.79673
C          0.45655       -0.06009       -0.19767
N         -1.95267       -0.37618        0.16729
H         -2.33674        1.61775       -0.46308
H         -2.96550        1.18835        1.16586
H         -2.83953       -0.72830       -0.26296
H         -0.76808       -1.62527       -1.06434
H         -1.08511        0.01849       -1.72849
N          0.33608        1.32705        0.25705
H          1.20782       -0.16432       -1.00744
H          0.73317       -0.70270        0.66789
H         -1.01860        2.64676        1.33544
H         -0.67649        1.07744        2.08732
C          1.54685        2.12986        0.40767
C          1.49314        3.52607        0.66346
C          2.83568        1.53738        0.28241
C          4.03056        2.28765        0.43045
C          3.92623        3.67651        0.69261
C          2.66177        4.27014        0.80489
F          0.32687        4.20677        0.73182
C          5.09605        4.44607        0.83581
C          6.35220        3.82701        0.78097
C          6.41403        2.45988        0.48649
N          5.28377        1.71006        0.30595
H          7.38634        1.98660        0.42496
O          5.01668        5.65543        1.00463
C          7.61661        4.57200        1.05588
O          7.58014        5.81990        1.56557
O          8.69852        4.02580        0.90936
H          2.91404        0.48644        0.08367
H          2.57129        5.33181        1.00638
C          5.48233        0.27747       -0.01263
C          5.27880       -0.59430        1.22187
H          6.53012        0.09124       -0.34084
H          4.85636       -0.02912       -0.87824
H          5.98751       -0.26937        2.01384
H          5.49832       -1.65320        0.96831
H          4.24757       -0.52200        1.61507
