39
Energy =
C     0.2060376    0.3484398   -1.2828315 
C     0.2062017    0.3481810    1.2828330 
C    -1.1370756   -0.3142906    1.2396783 
C    -1.1370854   -0.3143858   -1.2397567 
C     0.8782675    0.7212155    0.0000043 
H    -1.9816458    0.3914093    1.1917943 
H    -1.9818327    0.3911163   -1.1920745 
H    -1.2885842   -0.9719234    2.1054487 
H    -1.2883198   -0.9721704   -2.1054604 
O     1.9582882    1.2785630   -0.0000051 
C     0.8882827    0.5772171    2.4334234 
H     1.8895812    0.9901234    2.2713313 
C     0.8879127    0.5780527   -2.4334382 
H     1.8890244    0.9913860   -2.2712654 
C     0.5113772    0.3243429   -3.8141882 
C    -0.0651916   -0.2269989   -6.5074071 
C     1.5440920    0.0581543   -4.7349511 
C    -0.8156977    0.3480594   -4.2861609 
C    -1.0980992    0.0778058   -5.6202202 
C     1.2575911   -0.2290170   -6.0631330 
H     2.5799611    0.0705136   -4.3905087 
H    -1.6313794    0.6509026   -3.6288231 
H    -2.1283532    0.1205078   -5.9761518 
H     2.0693833   -0.4451502   -6.7589936 
C     0.5115267    0.3234026    3.8140977 
C    -0.0653575   -0.2261393    6.5076157 
C    -0.8154772    0.3485645    4.2861414 
C     1.5440336    0.0561588    4.7347924 
C     1.2573663   -0.2300811    6.0631470 
C    -1.0980165    0.0793537    5.6203769 
H    -1.6309626    0.6515978    3.6286458 
H     2.5798516    0.0668344    4.3901320 
H     2.0689882   -0.4469622    6.7589820 
H    -2.1281673    0.1234925    5.9764267 
N    -1.2418568   -1.1486500    0.0000105 
H    -0.4873008   -1.8449540    0.0000416 
H    -2.1254511   -1.6647669    0.0000337 
H    -0.2908241   -0.4409300   -7.5532280 
H    -0.2910887   -0.4389750    7.5536410 
