48
	Energy:      98.6586808
C          2.39641        4.50593       -1.76850
C          3.02362        5.46431       -2.57776
C          2.12015        3.23344       -2.27825
C          3.38548        5.13064       -3.89477
C          2.48339        2.90824       -3.58934
C          3.12132        3.85501       -4.39429
H          1.62219        2.50036       -1.65808
H          2.10825        4.75212       -0.75390
H          3.88114        5.85447       -4.52879
H          2.27073        1.92310       -3.98191
H          3.40915        3.60299       -5.40677
C          3.30110        6.84192       -2.05087
C          4.46916        6.83303       -1.04967
H          2.37743        7.27718       -1.61799
H          3.58121        7.48474       -2.90834
C          4.89520        8.26309       -0.63233
C          3.86976        8.84789        0.35908
N          5.05818        9.16929       -1.80547
C          6.05777        8.70425       -2.79983
H          5.35128       10.10952       -1.44652
H          5.33942        6.33936       -1.53090
H          4.23017        6.21756       -0.15293
H          5.85405        8.18468       -0.06881
H          2.87524        8.97982       -0.11250
H          4.21408        9.83297        0.73834
H          3.75523        8.17573        1.24076
C          6.16487        9.63609       -4.04832
H          5.81720        7.69248       -3.16822
H          7.05151        8.66456       -2.29757
O          7.11289        9.15562       -4.98383
C          4.91303        9.78599       -4.89463
H          6.48432       10.63106       -3.66525
C          4.47383        8.69894       -5.67720
C          4.27506       11.03231       -5.03715
C          3.23273       11.18853       -5.96054
C          3.43976        8.86334       -6.61489
C          2.82152       10.11904       -6.75721
H          4.98053        7.74401       -5.60081
H          4.60021       11.89085       -4.46317
H          2.75509       12.15229       -6.07880
C          3.00378        7.73716       -7.44914
O          1.82923       10.31383       -7.65797
O          3.39645        7.64333       -8.60970
H          1.50094        9.61451       -8.24108
N          2.07911        6.87383       -6.98374
H          1.71211        6.98736       -6.02396
H          1.69988        6.13052       -7.58282
H          7.98282        8.94513       -4.57194
